
>>> text_indentation = __import__('5-text_indentation').text_indentation

>>> text_indentation("Hello.")
Hello.
<BLANKLINE>

>>> text_indentation("    Hello")
Hello

>>> text_indentation("Hello      ")
Hello

>>> text_indentation("      ")
<BLANKLINE>


>>> text_indentation("")
<BLANKLINE>

    >>> text_indentation(22)
    Traceback (most recent call last):
    TypeError: text must be a string

	>>> text_indentation("    Shaza Ali.    This is my name.   ")
	Shaza Ali.
	<BLANKLINE>
	This is my name.
	<BLANKLINE>

    >>> text_indentation("A very \n new line.")
    A very
    new line.
    <BLANKLINE>



